<?xml version="1.0" encoding="UTF-8"?>

<!-- generated on 01/23/20 10:48:07 by Eclipse SUMO netedit Version 1.4.0
<configuration xmlns:xsi="http://www.w3.org/2001/XMLSchema-instance" xsi:noNamespaceSchemaLocation="http://sumo.dlr.de/xsd/netconvertConfiguration.xsd">

    <input>
        <sumo-net-file value="C:\Users\James\Desktop\SUMO%20Tutorials\intersection\Model%201\model1.net.xml"/>
    </input>

    <output>
        <output-file value="C:\Users\James\Desktop\SUMO%20Tutorials\intersection\Model%201\model1.net.xml"/>
    </output>

    <processing>
        <geometry.min-radius.fix.railways value="false"/>
        <geometry.max-grade.fix value="false"/>
        <offset.disable-normalization value="true"/>
        <lefthand value="false"/>
    </processing>

    <junctions>
        <no-turnarounds value="true"/>
        <junctions.corner-detail value="5"/>
        <junctions.limit-turn-speed value="5.5"/>
        <rectangular-lane-cut value="false"/>
    </junctions>

    <pedestrian>
        <walkingareas value="false"/>
    </pedestrian>

    <netedit>
        <additional-files value="C:\Users\James\Desktop\SUMO%20Tutorials\intersection\Model%201\e3_system.add.xml"/>
        <route-files value="C:\Users\James\Desktop\SUMO%20Tutorials\intersection\Model%201\model1.rou.xml"/>
    </netedit>

    <report>
        <aggregate-warnings value="5"/>
    </report>

</configuration>
-->

<net version="1.3" junctionCornerDetail="5" limitTurnSpeed="5.50" xmlns:xsi="http://www.w3.org/2001/XMLSchema-instance" xsi:noNamespaceSchemaLocation="http://sumo.dlr.de/xsd/net_file.xsd">

    <location netOffset="0.00,0.00" convBoundary="-200.00,-300.00,400.00,300.00" origBoundary="-10000000000.00,-10000000000.00,10000000000.00,10000000000.00" projParameter="!"/>

    <edge id=":gneJ11_0" function="internal">
        <lane id=":gneJ11_0_0" index="0" speed="6.51" length="9.03" shape="95.20,10.40 94.85,7.95 93.80,6.20 92.05,5.15 89.60,4.80"/>
    </edge>
    <edge id=":gneJ11_1" function="internal">
        <lane id=":gneJ11_1_0" index="0" speed="13.89" length="20.96" shape="95.20,10.40 95.20,-10.40"/>
        <lane id=":gneJ11_1_1" index="1" speed="13.89" length="20.96" shape="95.20,10.40 95.70,4.34 96.80,-0.00 97.90,-4.34 98.40,-10.40"/>
    </edge>
    <edge id=":gneJ11_3" function="internal">
        <lane id=":gneJ11_3_0" index="0" speed="9.26" length="19.35" shape="98.40,10.40 99.15,5.15 101.40,1.40 105.15,-0.85 110.40,-1.60"/>
    </edge>
    <edge id=":gneJ11_4" function="internal">
        <lane id=":gneJ11_4_0" index="0" speed="3.65" length="2.47" shape="98.40,10.40 99.20,9.20 100.00,8.80 100.12,8.86"/>
    </edge>
    <edge id=":gneJ11_20" function="internal">
        <lane id=":gneJ11_20_0" index="0" speed="3.65" length="2.20" shape="100.12,8.86 100.80,9.20 101.60,10.40"/>
    </edge>
    <edge id=":gneJ11_5" function="internal">
        <lane id=":gneJ11_5_0" index="0" speed="6.51" length="9.03" shape="110.40,4.80 107.95,5.15 106.20,6.20 105.15,7.95 104.80,10.40"/>
    </edge>
    <edge id=":gneJ11_6" function="internal">
        <lane id=":gneJ11_6_0" index="0" speed="13.89" length="20.96" shape="110.40,4.80 89.60,4.80"/>
        <lane id=":gneJ11_6_1" index="1" speed="13.89" length="20.96" shape="110.40,4.80 104.34,4.30 100.00,3.20 95.66,2.10 89.60,1.60"/>
    </edge>
    <edge id=":gneJ11_8" function="internal">
        <lane id=":gneJ11_8_0" index="0" speed="9.26" length="19.35" shape="110.40,1.60 105.15,0.85 101.40,-1.40 99.15,-5.15 98.40,-10.40"/>
    </edge>
    <edge id=":gneJ11_9" function="internal">
        <lane id=":gneJ11_9_0" index="0" speed="3.65" length="2.47" shape="110.40,1.60 109.20,0.80 108.80,0.00 108.86,-0.12"/>
    </edge>
    <edge id=":gneJ11_21" function="internal">
        <lane id=":gneJ11_21_0" index="0" speed="3.65" length="2.20" shape="108.86,-0.12 109.20,-0.80 110.40,-1.60"/>
    </edge>
    <edge id=":gneJ11_10" function="internal">
        <lane id=":gneJ11_10_0" index="0" speed="6.51" length="9.03" shape="104.80,-10.40 105.15,-7.95 106.20,-6.20 107.95,-5.15 110.40,-4.80"/>
    </edge>
    <edge id=":gneJ11_11" function="internal">
        <lane id=":gneJ11_11_0" index="0" speed="13.89" length="20.96" shape="104.80,-10.40 104.80,10.40"/>
        <lane id=":gneJ11_11_1" index="1" speed="13.89" length="20.96" shape="104.80,-10.40 104.30,-4.34 103.20,0.00 102.10,4.34 101.60,10.40"/>
    </edge>
    <edge id=":gneJ11_13" function="internal">
        <lane id=":gneJ11_13_0" index="0" speed="9.26" length="19.35" shape="101.60,-10.40 100.85,-5.15 98.60,-1.40 94.85,0.85 89.60,1.60"/>
    </edge>
    <edge id=":gneJ11_14" function="internal">
        <lane id=":gneJ11_14_0" index="0" speed="3.65" length="2.47" shape="101.60,-10.40 100.80,-9.20 100.00,-8.80 99.88,-8.86"/>
    </edge>
    <edge id=":gneJ11_22" function="internal">
        <lane id=":gneJ11_22_0" index="0" speed="3.65" length="2.20" shape="99.88,-8.86 99.20,-9.20 98.40,-10.40"/>
    </edge>
    <edge id=":gneJ11_15" function="internal">
        <lane id=":gneJ11_15_0" index="0" speed="6.51" length="9.03" shape="89.60,-4.80 92.05,-5.15 93.80,-6.20 94.85,-7.95 95.20,-10.40"/>
    </edge>
    <edge id=":gneJ11_16" function="internal">
        <lane id=":gneJ11_16_0" index="0" speed="13.89" length="20.96" shape="89.60,-4.80 110.40,-4.80"/>
        <lane id=":gneJ11_16_1" index="1" speed="13.89" length="20.96" shape="89.60,-4.80 95.66,-4.30 100.00,-3.20 104.34,-2.10 110.40,-1.60"/>
    </edge>
    <edge id=":gneJ11_18" function="internal">
        <lane id=":gneJ11_18_0" index="0" speed="9.26" length="19.35" shape="89.60,-1.60 94.85,-0.85 98.60,1.40 100.85,5.15 101.60,10.40"/>
    </edge>
    <edge id=":gneJ11_19" function="internal">
        <lane id=":gneJ11_19_0" index="0" speed="3.65" length="2.47" shape="89.60,-1.60 90.80,-0.80 91.20,0.00 91.14,0.12"/>
    </edge>
    <edge id=":gneJ11_23" function="internal">
        <lane id=":gneJ11_23_0" index="0" speed="3.65" length="2.20" shape="91.14,0.12 90.80,0.80 89.60,1.60"/>
    </edge>

    <edge id="e_entry" from="gneJ12" to="gneJ11" priority="-1">
        <lane id="e_entry_0" index="0" speed="13.89" length="289.60" shape="400.00,4.80 110.40,4.80"/>
        <lane id="e_entry_1" index="1" speed="13.89" length="289.60" shape="400.00,1.60 110.40,1.60"/>
    </edge>
    <edge id="e_exit" from="gneJ11" to="gneJ12" priority="-1">
        <lane id="e_exit_0" index="0" speed="13.89" length="289.60" shape="110.40,-4.80 400.00,-4.80"/>
        <lane id="e_exit_1" index="1" speed="13.89" length="289.60" shape="110.40,-1.60 400.00,-1.60"/>
    </edge>
    <edge id="n_entry" from="gneJ13" to="gneJ11" priority="-1">
        <lane id="n_entry_0" index="0" speed="13.89" length="289.60" shape="95.20,300.00 95.20,10.40"/>
        <lane id="n_entry_1" index="1" speed="13.89" length="289.60" shape="98.40,300.00 98.40,10.40"/>
    </edge>
    <edge id="n_exit" from="gneJ11" to="gneJ13" priority="-1">
        <lane id="n_exit_0" index="0" speed="13.89" length="289.60" shape="104.80,10.40 104.80,300.00"/>
        <lane id="n_exit_1" index="1" speed="13.89" length="289.60" shape="101.60,10.40 101.60,300.00"/>
    </edge>
    <edge id="s_entry" from="gneJ14" to="gneJ11" priority="-1">
        <lane id="s_entry_0" index="0" speed="13.89" length="289.60" shape="104.80,-300.00 104.80,-10.40"/>
        <lane id="s_entry_1" index="1" speed="13.89" length="289.60" shape="101.60,-300.00 101.60,-10.40"/>
    </edge>
    <edge id="s_exit" from="gneJ11" to="gneJ14" priority="-1">
        <lane id="s_exit_0" index="0" speed="13.89" length="289.60" shape="95.20,-10.40 95.20,-300.00"/>
        <lane id="s_exit_1" index="1" speed="13.89" length="289.60" shape="98.40,-10.40 98.40,-300.00"/>
    </edge>
    <edge id="w_entry" from="gneJ10" to="gneJ11" priority="-1">
        <lane id="w_entry_0" index="0" speed="13.89" length="289.60" shape="-200.00,-4.80 89.60,-4.80"/>
        <lane id="w_entry_1" index="1" speed="13.89" length="289.60" shape="-200.00,-1.60 89.60,-1.60"/>
    </edge>
    <edge id="w_exit" from="gneJ11" to="gneJ10" priority="-1">
        <lane id="w_exit_0" index="0" speed="13.89" length="289.60" shape="89.60,4.80 -200.00,4.80"/>
        <lane id="w_exit_1" index="1" speed="13.89" length="289.60" shape="89.60,1.60 -200.00,1.60"/>
    </edge>

    <tlLogic id="gneJ11" type="static" programID="0" offset="0">
        <phase duration="20" state="GGGrgrrrrrGGGrgrrrrr"/>
        <phase duration="3"  state="yyyrgrrrrryyyrgrrrrr"/>
        <phase duration="10" state="rrrGGrrrrrrrrGGrrrrr"/>
        <phase duration="3"  state="rrryyrrrrrrrryyrrrrr"/>
        <phase duration="20" state="rrrrrGGGrgrrrrrGGGrg"/>
        <phase duration="3"  state="rrrrryyyrgrrrrryyyrg"/>
        <phase duration="10" state="rrrrrrrrGGrrrrrrrrGG"/>
        <phase duration="3"  state="rrrrrrrryyrrrrrrrryy"/>
    </tlLogic>

    <junction id="gneJ10" type="dead_end" x="-200.00" y="0.00" incLanes="w_exit_0 w_exit_1" intLanes="" shape="-200.00,0.00 -200.00,6.40 -200.00,0.00"/>
    <junction id="gneJ11" type="traffic_light" x="100.00" y="0.00" incLanes="n_entry_0 n_entry_1 e_entry_0 e_entry_1 s_entry_0 s_entry_1 w_entry_0 w_entry_1" intLanes=":gneJ11_0_0 :gneJ11_1_0 :gneJ11_1_1 :gneJ11_3_0 :gneJ11_20_0 :gneJ11_5_0 :gneJ11_6_0 :gneJ11_6_1 :gneJ11_8_0 :gneJ11_21_0 :gneJ11_10_0 :gneJ11_11_0 :gneJ11_11_1 :gneJ11_13_0 :gneJ11_22_0 :gneJ11_15_0 :gneJ11_16_0 :gneJ11_16_1 :gneJ11_18_0 :gneJ11_23_0" shape="93.60,10.40 106.40,10.40 106.84,8.18 107.40,7.40 108.18,6.84 109.18,6.51 110.40,6.40 110.40,-6.40 108.18,-6.84 107.40,-7.40 106.84,-8.18 106.51,-9.18 106.40,-10.40 93.60,-10.40 93.16,-8.18 92.60,-7.40 91.82,-6.84 90.82,-6.51 89.60,-6.40 89.60,6.40 91.82,6.84 92.60,7.40 93.16,8.18 93.49,9.18">
        <request index="0"  response="00000000000000000000" foes="00000000000011000000" cont="0"/>
        <request index="1"  response="00000000000000000000" foes="01111110000111000000" cont="0"/>
        <request index="2"  response="00000000000000000000" foes="01111110000111000000" cont="0"/>
        <request index="3"  response="00000001100000000000" foes="01110001101111000000" cont="0"/>
        <request index="4"  response="01000001100000000000" foes="01000001100000000000" cont="1"/>
        <request index="5"  response="00000001100000000000" foes="00000001100000000000" cont="0"/>
        <request index="6"  response="00000011100000001111" foes="11000011100000001111" cont="0"/>
        <request index="7"  response="00000011100000001111" foes="11000011100000001111" cont="0"/>
        <request index="8"  response="00110011100000001110" foes="00110111100000001110" cont="0"/>
        <request index="9"  response="00110000000000001000" foes="00110000000000001000" cont="1"/>
        <request index="10" response="00000000000000000000" foes="00110000000000000000" cont="0"/>
        <request index="11" response="00000000000000000000" foes="01110000000111111000" cont="0"/>
        <request index="12" response="00000000000000000000" foes="01110000000111111000" cont="0"/>
        <request index="13" response="00000000000000000110" foes="11110000000111000110" cont="0"/>
        <request index="14" response="00000000000100000110" foes="00000000000100000110" cont="1"/>
        <request index="15" response="00000000000000000110" foes="00000000000000000110" cont="0"/>
        <request index="16" response="00000011110000001110" foes="00000011111100001110" cont="0"/>
        <request index="17" response="00000011110000001110" foes="00000011111100001110" cont="0"/>
        <request index="18" response="00000011100011001110" foes="00000011100011011110" cont="0"/>
        <request index="19" response="00000010000011000000" foes="00000010000011000000" cont="1"/>
    </junction>
    <junction id="gneJ12" type="dead_end" x="400.00" y="0.00" incLanes="e_exit_0 e_exit_1" intLanes="" shape="400.00,0.00 400.00,-6.40 400.00,0.00"/>
    <junction id="gneJ13" type="dead_end" x="100.00" y="300.00" incLanes="n_exit_0 n_exit_1" intLanes="" shape="100.00,300.00 106.40,300.00 100.00,300.00"/>
    <junction id="gneJ14" type="dead_end" x="100.00" y="-300.00" incLanes="s_exit_0 s_exit_1" intLanes="" shape="100.00,-300.00 93.60,-300.00 100.00,-300.00"/>

    <junction id=":gneJ11_20_0" type="internal" x="100.12" y="8.86" incLanes=":gneJ11_4_0 e_entry_0 s_entry_0 w_entry_1" intLanes=":gneJ11_5_0 :gneJ11_11_0 :gneJ11_11_1 :gneJ11_18_0"/>
    <junction id=":gneJ11_21_0" type="internal" x="108.86" y="-0.12" incLanes=":gneJ11_9_0 n_entry_1 s_entry_0 w_entry_0" intLanes=":gneJ11_3_0 :gneJ11_10_0 :gneJ11_16_0 :gneJ11_16_1"/>
    <junction id=":gneJ11_22_0" type="internal" x="99.88" y="-8.86" incLanes=":gneJ11_14_0 e_entry_1 n_entry_0 w_entry_0" intLanes=":gneJ11_1_0 :gneJ11_1_1 :gneJ11_8_0 :gneJ11_15_0"/>
    <junction id=":gneJ11_23_0" type="internal" x="91.14" y="0.12" incLanes=":gneJ11_19_0 e_entry_0 n_entry_0 s_entry_1" intLanes=":gneJ11_0_0 :gneJ11_6_0 :gneJ11_6_1 :gneJ11_13_0"/>

    <connection from="e_entry" to="n_exit" fromLane="0" toLane="0" via=":gneJ11_5_0" tl="gneJ11" linkIndex="5" dir="r" state="o"/>
    <connection from="e_entry" to="w_exit" fromLane="0" toLane="0" via=":gneJ11_6_0" tl="gneJ11" linkIndex="6" dir="s" state="o"/>
    <connection from="e_entry" to="w_exit" fromLane="0" toLane="1" via=":gneJ11_6_1" tl="gneJ11" linkIndex="7" dir="s" state="o"/>
    <connection from="e_entry" to="s_exit" fromLane="1" toLane="1" via=":gneJ11_8_0" tl="gneJ11" linkIndex="8" dir="l" state="o"/>
    <connection from="e_entry" to="e_exit" fromLane="1" toLane="1" via=":gneJ11_9_0" tl="gneJ11" linkIndex="9" dir="t" state="o"/>
    <connection from="n_entry" to="w_exit" fromLane="0" toLane="0" via=":gneJ11_0_0" tl="gneJ11" linkIndex="0" dir="r" state="O"/>
    <connection from="n_entry" to="s_exit" fromLane="0" toLane="0" via=":gneJ11_1_0" tl="gneJ11" linkIndex="1" dir="s" state="O"/>
    <connection from="n_entry" to="s_exit" fromLane="0" toLane="1" via=":gneJ11_1_1" tl="gneJ11" linkIndex="2" dir="s" state="O"/>
    <connection from="n_entry" to="e_exit" fromLane="1" toLane="1" via=":gneJ11_3_0" tl="gneJ11" linkIndex="3" dir="l" state="o"/>
    <connection from="n_entry" to="n_exit" fromLane="1" toLane="1" via=":gneJ11_4_0" tl="gneJ11" linkIndex="4" dir="t" state="o"/>
    <connection from="s_entry" to="e_exit" fromLane="0" toLane="0" via=":gneJ11_10_0" tl="gneJ11" linkIndex="10" dir="r" state="O"/>
    <connection from="s_entry" to="n_exit" fromLane="0" toLane="0" via=":gneJ11_11_0" tl="gneJ11" linkIndex="11" dir="s" state="O"/>
    <connection from="s_entry" to="n_exit" fromLane="0" toLane="1" via=":gneJ11_11_1" tl="gneJ11" linkIndex="12" dir="s" state="O"/>
    <connection from="s_entry" to="w_exit" fromLane="1" toLane="1" via=":gneJ11_13_0" tl="gneJ11" linkIndex="13" dir="l" state="o"/>
    <connection from="s_entry" to="s_exit" fromLane="1" toLane="1" via=":gneJ11_14_0" tl="gneJ11" linkIndex="14" dir="t" state="o"/>
    <connection from="w_entry" to="s_exit" fromLane="0" toLane="0" via=":gneJ11_15_0" tl="gneJ11" linkIndex="15" dir="r" state="o"/>
    <connection from="w_entry" to="e_exit" fromLane="0" toLane="0" via=":gneJ11_16_0" tl="gneJ11" linkIndex="16" dir="s" state="o"/>
    <connection from="w_entry" to="e_exit" fromLane="0" toLane="1" via=":gneJ11_16_1" tl="gneJ11" linkIndex="17" dir="s" state="o"/>
    <connection from="w_entry" to="n_exit" fromLane="1" toLane="1" via=":gneJ11_18_0" tl="gneJ11" linkIndex="18" dir="l" state="o"/>
    <connection from="w_entry" to="w_exit" fromLane="1" toLane="1" via=":gneJ11_19_0" tl="gneJ11" linkIndex="19" dir="t" state="o"/>

    <connection from=":gneJ11_0" to="w_exit" fromLane="0" toLane="0" dir="r" state="M"/>
    <connection from=":gneJ11_1" to="s_exit" fromLane="0" toLane="0" dir="s" state="M"/>
    <connection from=":gneJ11_1" to="s_exit" fromLane="1" toLane="1" dir="s" state="M"/>
    <connection from=":gneJ11_3" to="e_exit" fromLane="0" toLane="1" dir="l" state="M"/>
    <connection from=":gneJ11_4" to="n_exit" fromLane="0" toLane="1" via=":gneJ11_20_0" dir="t" state="m"/>
    <connection from=":gneJ11_20" to="n_exit" fromLane="0" toLane="1" dir="t" state="M"/>
    <connection from=":gneJ11_5" to="n_exit" fromLane="0" toLane="0" dir="r" state="M"/>
    <connection from=":gneJ11_6" to="w_exit" fromLane="0" toLane="0" dir="s" state="M"/>
    <connection from=":gneJ11_6" to="w_exit" fromLane="1" toLane="1" dir="s" state="M"/>
    <connection from=":gneJ11_8" to="s_exit" fromLane="0" toLane="1" dir="l" state="M"/>
    <connection from=":gneJ11_9" to="e_exit" fromLane="0" toLane="1" via=":gneJ11_21_0" dir="t" state="m"/>
    <connection from=":gneJ11_21" to="e_exit" fromLane="0" toLane="1" dir="t" state="M"/>
    <connection from=":gneJ11_10" to="e_exit" fromLane="0" toLane="0" dir="r" state="M"/>
    <connection from=":gneJ11_11" to="n_exit" fromLane="0" toLane="0" dir="s" state="M"/>
    <connection from=":gneJ11_11" to="n_exit" fromLane="1" toLane="1" dir="s" state="M"/>
    <connection from=":gneJ11_13" to="w_exit" fromLane="0" toLane="1" dir="l" state="M"/>
    <connection from=":gneJ11_14" to="s_exit" fromLane="0" toLane="1" via=":gneJ11_22_0" dir="t" state="m"/>
    <connection from=":gneJ11_22" to="s_exit" fromLane="0" toLane="1" dir="t" state="M"/>
    <connection from=":gneJ11_15" to="s_exit" fromLane="0" toLane="0" dir="r" state="M"/>
    <connection from=":gneJ11_16" to="e_exit" fromLane="0" toLane="0" dir="s" state="M"/>
    <connection from=":gneJ11_16" to="e_exit" fromLane="1" toLane="1" dir="s" state="M"/>
    <connection from=":gneJ11_18" to="n_exit" fromLane="0" toLane="1" dir="l" state="M"/>
    <connection from=":gneJ11_19" to="w_exit" fromLane="0" toLane="1" via=":gneJ11_23_0" dir="t" state="m"/>
    <connection from=":gneJ11_23" to="w_exit" fromLane="0" toLane="1" dir="t" state="M"/>

</net>
