<?xml version="1.0" encoding="UTF-8"?>

<!-- generated on 01/22/20 17:58:32 by Eclipse SUMO GUI Version 1.4.0
-->

<configuration xmlns:xsi="http://www.w3.org/2001/XMLSchema-instance" xsi:noNamespaceSchemaLocation="http://sumo.dlr.de/xsd/sumoConfiguration.xsd">

    <input>
        <net-file value="model_test.net.xml"/>
        <route-files value="model_test.rou.xml"/>
        <additional-files value="model_test.add.xml"/>
    </input>

    <time>
        <begin value="0"/>
        <end value="54900"/>
    </time>

    <processing>
        <time-to-teleport value="-1"/>
    </processing>

</configuration>