<?xml version="1.0" encoding="UTF-8"?>

<!-- generated on 2022-04-27 17:10:45 by Eclipse SUMO netedit Version 1.12.0
<configuration xmlns:xsi="http://www.w3.org/2001/XMLSchema-instance" xsi:noNamespaceSchemaLocation="http://sumo.dlr.de/xsd/netconvertConfiguration.xsd">

    <input>
        <sumo-net-file value="E:\sumo%20test\model%20test\initial%20model.net.xml"/>
    </input>

    <output>
        <output-file value="E:\sumo%20test\model%20test\initial%20model.net.xml"/>
    </output>

    <processing>
        <geometry.min-radius.fix.railways value="false"/>
        <geometry.max-grade.fix value="false"/>
        <offset.disable-normalization value="true"/>
        <lefthand value="false"/>
    </processing>

    <junctions>
        <no-turnarounds value="true"/>
        <junctions.corner-detail value="5"/>
        <junctions.limit-turn-speed value="5.5"/>
        <rectangular-lane-cut value="false"/>
    </junctions>

    <pedestrian>
        <walkingareas value="false"/>
    </pedestrian>

    <report>
        <aggregate-warnings value="5"/>
    </report>

</configuration>
-->

<net version="1.9" junctionCornerDetail="5" limitTurnSpeed="5.50" xmlns:xsi="http://www.w3.org/2001/XMLSchema-instance" xsi:noNamespaceSchemaLocation="http://sumo.dlr.de/xsd/net_file.xsd">

    <location netOffset="0.00,0.00" convBoundary="-300.00,-300.00,300.00,300.00" origBoundary="-10000000000.00,-10000000000.00,10000000000.00,10000000000.00" projParameter="!"/>

    <edge id=":gneJ1_0" function="internal">
        <lane id=":gneJ1_0_0" index="0" speed="7.59" length="1.69" shape="1.24,104.64 0.52,104.82 0.00,104.88 -0.52,104.82 -1.24,104.64"/>
        <lane id=":gneJ1_0_1" index="1" speed="13.89" length="1.69" shape="0.41,101.55 0.17,101.61 0.00,101.63 -0.17,101.61 -0.41,101.55"/>
    </edge>
    <edge id=":gneJ10_0" function="internal">
        <lane id=":gneJ10_0_0" index="0" speed="13.89" length="10.43" shape="-55.41,-88.50 -53.22,-90.55 -52.20,-92.37 -51.54,-94.50 -50.47,-97.42"/>
        <lane id=":gneJ10_0_1" index="1" speed="13.89" length="11.20" shape="-55.41,-88.50 -52.66,-90.39 -50.68,-91.69 -49.10,-93.29 -47.55,-96.13"/>
    </edge>
    <edge id=":gneJ10_2" function="internal">
        <lane id=":gneJ10_2_0" index="0" speed="13.89" length="11.00" shape="-55.41,-88.50 -52.61,-90.46 -50.49,-91.48 -48.18,-92.12 -44.82,-92.96"/>
        <lane id=":gneJ10_2_1" index="1" speed="13.89" length="11.00" shape="-53.46,-85.96 -50.97,-87.70 -49.06,-88.58 -46.99,-89.13 -44.00,-89.87"/>
    </edge>
    <edge id=":gneJ101_0" function="internal">
        <lane id=":gneJ101_0_0" index="0" speed="11.62" length="4.31" shape="-4.80,202.85 -4.81,201.77 -4.90,201.03 -5.12,200.32 -5.54,199.33"/>
        <lane id=":gneJ101_0_1" index="1" speed="13.52" length="4.31" shape="-1.60,202.85 -1.62,201.38 -1.73,200.37 -2.04,199.39 -2.61,198.04"/>
    </edge>
    <edge id=":gneJ101_2" function="internal">
        <lane id=":gneJ101_2_0" index="0" speed="3.65" length="1.44" shape="-1.60,202.85 -0.80,201.65"/>
    </edge>
    <edge id=":gneJ101_5" function="internal">
        <lane id=":gneJ101_5_0" index="0" speed="3.65" length="3.23" shape="-0.80,201.65 0.00,201.25 0.80,201.65 1.60,202.85"/>
    </edge>
    <edge id=":gneJ101_3" function="internal">
        <lane id=":gneJ101_3_0" index="0" speed="11.62" length="4.31" shape="5.54,199.33 5.12,200.32 4.90,201.03 4.81,201.77 4.80,202.85"/>
        <lane id=":gneJ101_3_1" index="1" speed="13.52" length="4.31" shape="2.61,198.04 2.04,199.39 1.73,200.37 1.62,201.38 1.60,202.85"/>
    </edge>
    <edge id=":gneJ11_0" function="internal">
        <lane id=":gneJ11_0_0" index="0" speed="13.89" length="0.84" shape="-74.52,-73.63 -74.29,-73.93 -74.12,-74.12 -73.93,-74.29 -73.63,-74.52"/>
        <lane id=":gneJ11_0_1" index="1" speed="13.89" length="0.84" shape="-71.98,-71.68 -71.90,-71.78 -71.85,-71.85 -71.78,-71.90 -71.68,-71.98"/>
    </edge>
    <edge id=":gneJ12_0" function="internal">
        <lane id=":gneJ12_0_0" index="0" speed="13.89" length="11.23" shape="-97.42,-50.47 -94.50,-51.54 -92.37,-52.20 -90.55,-53.22 -88.50,-55.41"/>
        <lane id=":gneJ12_0_1" index="1" speed="13.89" length="11.23" shape="-96.13,-47.55 -92.77,-48.82 -90.37,-49.64 -88.30,-50.90 -85.96,-53.46"/>
    </edge>
    <edge id=":gneJ12_2" function="internal">
        <lane id=":gneJ12_2_0" index="0" speed="13.89" length="11.00" shape="-92.96,-44.82 -92.12,-48.18 -91.48,-50.49 -90.46,-52.61 -88.50,-55.41"/>
        <lane id=":gneJ12_2_1" index="1" speed="13.89" length="11.00" shape="-89.87,-44.00 -89.13,-46.99 -88.58,-49.06 -87.70,-50.97 -85.96,-53.46"/>
    </edge>
    <edge id=":gneJ13_0" function="internal">
        <lane id=":gneJ13_0_0" index="0" speed="7.59" length="1.69" shape="-104.64,1.24 -104.82,0.52 -104.88,0.00 -104.82,-0.52 -104.64,-1.24"/>
        <lane id=":gneJ13_0_1" index="1" speed="13.89" length="1.69" shape="-101.55,0.41 -101.61,0.17 -101.63,0.00 -101.61,-0.17 -101.55,-0.41"/>
    </edge>
    <edge id=":gneJ14_0" function="internal">
        <lane id=":gneJ14_0_0" index="0" speed="13.89" length="10.43" shape="-88.50,55.41 -90.55,53.22 -92.37,52.20 -94.50,51.54 -97.42,50.47"/>
        <lane id=":gneJ14_0_1" index="1" speed="13.89" length="11.20" shape="-88.50,55.41 -90.39,52.66 -91.69,50.68 -93.29,49.10 -96.13,47.55"/>
    </edge>
    <edge id=":gneJ14_2" function="internal">
        <lane id=":gneJ14_2_0" index="0" speed="13.89" length="11.00" shape="-88.50,55.41 -90.46,52.61 -91.48,50.49 -92.12,48.18 -92.96,44.82"/>
        <lane id=":gneJ14_2_1" index="1" speed="13.89" length="11.00" shape="-85.96,53.46 -87.70,50.97 -88.58,49.06 -89.13,46.99 -89.87,44.00"/>
    </edge>
    <edge id=":gneJ15_0" function="internal">
        <lane id=":gneJ15_0_0" index="0" speed="13.89" length="0.84" shape="-73.63,74.52 -73.93,74.29 -74.12,74.12 -74.29,73.93 -74.52,73.63"/>
        <lane id=":gneJ15_0_1" index="1" speed="13.89" length="0.84" shape="-71.68,71.98 -71.78,71.90 -71.85,71.85 -71.90,71.78 -71.98,71.68"/>
    </edge>
    <edge id=":gneJ2_0" function="internal">
        <lane id=":gneJ2_0_0" index="0" speed="13.89" length="10.43" shape="55.41,88.50 53.22,90.55 52.20,92.37 51.54,94.50 50.47,97.42"/>
        <lane id=":gneJ2_0_1" index="1" speed="13.89" length="11.20" shape="55.41,88.50 52.66,90.39 50.68,91.69 49.10,93.29 47.55,96.13"/>
    </edge>
    <edge id=":gneJ2_2" function="internal">
        <lane id=":gneJ2_2_0" index="0" speed="13.89" length="11.00" shape="55.41,88.50 52.61,90.46 50.49,91.48 48.18,92.12 44.82,92.96"/>
        <lane id=":gneJ2_2_1" index="1" speed="13.89" length="11.00" shape="53.46,85.96 50.97,87.70 49.06,88.58 46.99,89.13 44.00,89.87"/>
    </edge>
    <edge id=":gneJ3_0" function="internal">
        <lane id=":gneJ3_0_0" index="0" speed="13.89" length="0.84" shape="74.52,73.63 74.29,73.93 74.12,74.12 73.93,74.29 73.63,74.52"/>
        <lane id=":gneJ3_0_1" index="1" speed="13.89" length="0.84" shape="71.98,71.68 71.90,71.78 71.85,71.85 71.78,71.90 71.68,71.98"/>
    </edge>
    <edge id=":gneJ4_0" function="internal">
        <lane id=":gneJ4_0_0" index="0" speed="13.89" length="11.23" shape="97.42,50.47 94.50,51.54 92.37,52.20 90.55,53.22 88.50,55.41"/>
        <lane id=":gneJ4_0_1" index="1" speed="13.89" length="11.23" shape="96.13,47.55 92.77,48.82 90.37,49.64 88.30,50.90 85.96,53.46"/>
    </edge>
    <edge id=":gneJ4_2" function="internal">
        <lane id=":gneJ4_2_0" index="0" speed="13.89" length="11.00" shape="92.96,44.82 92.12,48.18 91.48,50.49 90.46,52.61 88.50,55.41"/>
        <lane id=":gneJ4_2_1" index="1" speed="13.89" length="11.00" shape="89.87,44.00 89.13,46.99 88.58,49.06 87.70,50.97 85.96,53.46"/>
    </edge>
    <edge id=":gneJ5_0" function="internal">
        <lane id=":gneJ5_0_0" index="0" speed="7.59" length="1.69" shape="104.64,-1.24 104.82,-0.52 104.88,-0.00 104.82,0.52 104.64,1.24"/>
        <lane id=":gneJ5_0_1" index="1" speed="13.89" length="1.69" shape="101.55,-0.41 101.61,-0.17 101.63,-0.00 101.61,0.17 101.55,0.41"/>
    </edge>
    <edge id=":gneJ6_0" function="internal">
        <lane id=":gneJ6_0_0" index="0" speed="13.89" length="10.43" shape="88.50,-55.41 90.55,-53.22 92.37,-52.20 94.50,-51.54 97.42,-50.47"/>
        <lane id=":gneJ6_0_1" index="1" speed="13.89" length="11.20" shape="88.50,-55.41 90.39,-52.66 91.69,-50.68 93.29,-49.10 96.13,-47.55"/>
    </edge>
    <edge id=":gneJ6_2" function="internal">
        <lane id=":gneJ6_2_0" index="0" speed="13.89" length="11.00" shape="88.50,-55.41 90.46,-52.61 91.48,-50.49 92.12,-48.18 92.96,-44.82"/>
        <lane id=":gneJ6_2_1" index="1" speed="13.89" length="11.00" shape="85.96,-53.46 87.70,-50.97 88.58,-49.06 89.13,-46.99 89.87,-44.00"/>
    </edge>
    <edge id=":gneJ7_0" function="internal">
        <lane id=":gneJ7_0_0" index="0" speed="13.89" length="0.84" shape="73.63,-74.52 73.93,-74.29 74.12,-74.12 74.29,-73.93 74.52,-73.63"/>
        <lane id=":gneJ7_0_1" index="1" speed="13.89" length="0.84" shape="71.68,-71.98 71.78,-71.90 71.85,-71.85 71.90,-71.78 71.98,-71.68"/>
    </edge>
    <edge id=":gneJ73_0" function="internal">
        <lane id=":gneJ73_0_0" index="0" speed="13.89" length="11.23" shape="-50.47,97.42 -51.54,94.50 -52.20,92.37 -53.22,90.55 -55.41,88.50"/>
        <lane id=":gneJ73_0_1" index="1" speed="13.89" length="11.23" shape="-47.55,96.13 -48.82,92.77 -49.64,90.37 -50.90,88.30 -53.46,85.96"/>
    </edge>
    <edge id=":gneJ73_2" function="internal">
        <lane id=":gneJ73_2_0" index="0" speed="13.89" length="11.00" shape="-44.82,92.96 -48.18,92.12 -50.49,91.48 -52.61,90.46 -55.41,88.50"/>
        <lane id=":gneJ73_2_1" index="1" speed="13.89" length="11.00" shape="-44.00,89.87 -46.99,89.13 -49.06,88.58 -50.97,87.70 -53.46,85.96"/>
    </edge>
    <edge id=":gneJ8_0" function="internal">
        <lane id=":gneJ8_0_0" index="0" speed="13.89" length="11.23" shape="50.47,-97.42 51.54,-94.50 52.20,-92.37 53.22,-90.55 55.41,-88.50"/>
        <lane id=":gneJ8_0_1" index="1" speed="13.89" length="11.23" shape="47.55,-96.13 48.82,-92.77 49.64,-90.37 50.90,-88.30 53.46,-85.96"/>
    </edge>
    <edge id=":gneJ8_2" function="internal">
        <lane id=":gneJ8_2_0" index="0" speed="13.89" length="11.00" shape="44.82,-92.96 48.18,-92.12 50.49,-91.48 52.61,-90.46 55.41,-88.50"/>
        <lane id=":gneJ8_2_1" index="1" speed="13.89" length="11.00" shape="44.00,-89.87 46.99,-89.13 49.06,-88.58 50.97,-87.70 53.46,-85.96"/>
    </edge>
    <edge id=":gneJ9_0" function="internal">
        <lane id=":gneJ9_0_0" index="0" speed="7.59" length="1.69" shape="-1.24,-104.64 -0.52,-104.82 -0.00,-104.88 0.52,-104.82 1.24,-104.64"/>
        <lane id=":gneJ9_0_1" index="1" speed="13.89" length="1.69" shape="-0.41,-101.55 -0.17,-101.61 -0.00,-101.63 0.17,-101.61 0.41,-101.55"/>
    </edge>
    <edge id=":gneJ95_0" function="internal">
        <lane id=":gneJ95_0_0" index="0" speed="11.62" length="4.31" shape="-199.33,5.54 -200.32,5.12 -201.03,4.90 -201.77,4.81 -202.85,4.80"/>
        <lane id=":gneJ95_0_1" index="1" speed="13.52" length="4.31" shape="-198.04,2.61 -199.39,2.04 -200.37,1.73 -201.38,1.62 -202.85,1.60"/>
    </edge>
    <edge id=":gneJ95_2" function="internal">
        <lane id=":gneJ95_2_0" index="0" speed="11.62" length="4.31" shape="-202.85,-4.80 -201.77,-4.81 -201.03,-4.90 -200.32,-5.12 -199.33,-5.54"/>
        <lane id=":gneJ95_2_1" index="1" speed="13.52" length="4.31" shape="-202.85,-1.60 -201.38,-1.62 -200.37,-1.73 -199.39,-2.04 -198.04,-2.61"/>
    </edge>
    <edge id=":gneJ95_4" function="internal">
        <lane id=":gneJ95_4_0" index="0" speed="3.65" length="1.44" shape="-202.85,-1.60 -201.65,-0.80"/>
    </edge>
    <edge id=":gneJ95_5" function="internal">
        <lane id=":gneJ95_5_0" index="0" speed="3.65" length="3.23" shape="-201.65,-0.80 -201.25,0.00 -201.65,0.80 -202.85,1.60"/>
    </edge>
    <edge id=":gneJ97_0" function="internal">
        <lane id=":gneJ97_0_0" index="0" speed="11.62" length="4.31" shape="4.80,-202.85 4.81,-201.77 4.90,-201.03 5.12,-200.32 5.54,-199.33"/>
        <lane id=":gneJ97_0_1" index="1" speed="13.52" length="4.31" shape="1.60,-202.85 1.62,-201.38 1.73,-200.37 2.04,-199.39 2.61,-198.04"/>
    </edge>
    <edge id=":gneJ97_2" function="internal">
        <lane id=":gneJ97_2_0" index="0" speed="3.65" length="1.44" shape="1.60,-202.85 0.80,-201.65"/>
    </edge>
    <edge id=":gneJ97_5" function="internal">
        <lane id=":gneJ97_5_0" index="0" speed="3.65" length="3.23" shape="0.80,-201.65 0.00,-201.25 -0.80,-201.65 -1.60,-202.85"/>
    </edge>
    <edge id=":gneJ97_3" function="internal">
        <lane id=":gneJ97_3_0" index="0" speed="11.62" length="4.31" shape="-5.54,-199.33 -5.12,-200.32 -4.90,-201.03 -4.81,-201.77 -4.80,-202.85"/>
        <lane id=":gneJ97_3_1" index="1" speed="13.52" length="4.31" shape="-2.61,-198.04 -2.04,-199.39 -1.73,-200.37 -1.62,-201.38 -1.60,-202.85"/>
    </edge>
    <edge id=":gneJ98_0" function="internal">
        <lane id=":gneJ98_0_0" index="0" speed="11.62" length="4.31" shape="202.85,4.80 201.77,4.81 201.03,4.90 200.32,5.12 199.33,5.54"/>
        <lane id=":gneJ98_0_1" index="1" speed="13.52" length="4.31" shape="202.85,1.60 201.38,1.62 200.37,1.73 199.39,2.04 198.04,2.61"/>
    </edge>
    <edge id=":gneJ98_2" function="internal">
        <lane id=":gneJ98_2_0" index="0" speed="3.65" length="1.44" shape="202.85,1.60 201.65,0.80"/>
    </edge>
    <edge id=":gneJ98_5" function="internal">
        <lane id=":gneJ98_5_0" index="0" speed="3.65" length="3.23" shape="201.65,0.80 201.25,0.00 201.65,-0.80 202.85,-1.60"/>
    </edge>
    <edge id=":gneJ98_3" function="internal">
        <lane id=":gneJ98_3_0" index="0" speed="11.62" length="4.31" shape="199.33,-5.54 200.32,-5.12 201.03,-4.90 201.77,-4.81 202.85,-4.80"/>
        <lane id=":gneJ98_3_1" index="1" speed="13.52" length="4.31" shape="198.04,-2.61 199.39,-2.04 200.37,-1.73 201.38,-1.62 202.85,-1.60"/>
    </edge>

    <edge id="e_entry" from="gneJ105" to="gneJ98" priority="-1">
        <lane id="e_entry_0" index="0" speed="13.89" length="97.15" shape="300.00,4.80 202.85,4.80"/>
        <lane id="e_entry_1" index="1" speed="13.89" length="97.15" shape="300.00,1.60 202.85,1.60"/>
    </edge>
    <edge id="e_exit" from="gneJ98" to="gneJ105" priority="-1">
        <lane id="e_exit_0" index="0" speed="13.89" length="97.15" shape="202.85,-4.80 300.00,-4.80"/>
        <lane id="e_exit_1" index="1" speed="13.89" length="97.15" shape="202.85,-1.60 300.00,-1.60"/>
    </edge>
    <edge id="gneE100" from="gneJ13" to="gneJ12" priority="-1">
        <lane id="gneE100_0" index="0" speed="13.89" length="45.12" shape="-104.64,-1.24 -92.96,-44.82"/>
        <lane id="gneE100_1" index="1" speed="13.89" length="45.12" shape="-101.55,-0.41 -89.87,-44.00"/>
    </edge>
    <edge id="gneE101" from="gneJ12" to="gneJ11" priority="-1">
        <lane id="gneE101_0" index="0" speed="13.89" length="22.97" shape="-88.50,-55.41 -74.52,-73.63"/>
        <lane id="gneE101_1" index="1" speed="13.89" length="22.97" shape="-85.96,-53.46 -71.98,-71.68"/>
    </edge>
    <edge id="gneE102" from="gneJ11" to="gneJ10" priority="-1">
        <lane id="gneE102_0" index="0" speed="13.89" length="22.97" shape="-73.63,-74.52 -55.41,-88.50"/>
        <lane id="gneE102_1" index="1" speed="13.89" length="22.97" shape="-71.68,-71.98 -53.46,-85.96"/>
    </edge>
    <edge id="gneE103" from="gneJ10" to="gneJ9" priority="-1">
        <lane id="gneE103_0" index="0" speed="13.89" length="45.12" shape="-44.82,-92.96 -1.24,-104.64"/>
        <lane id="gneE103_1" index="1" speed="13.89" length="45.12" shape="-44.00,-89.87 -0.41,-101.55"/>
    </edge>
    <edge id="gneE104" from="gneJ9" to="gneJ8" priority="-1">
        <lane id="gneE104_0" index="0" speed="13.89" length="45.12" shape="1.24,-104.64 44.82,-92.96"/>
        <lane id="gneE104_1" index="1" speed="13.89" length="45.12" shape="0.41,-101.55 44.00,-89.87"/>
    </edge>
    <edge id="gneE105" from="gneJ8" to="gneJ7" priority="-1">
        <lane id="gneE105_0" index="0" speed="13.89" length="22.97" shape="55.41,-88.50 73.63,-74.52"/>
        <lane id="gneE105_1" index="1" speed="13.89" length="22.97" shape="53.46,-85.96 71.68,-71.98"/>
    </edge>
    <edge id="gneE106" from="gneJ7" to="gneJ6" priority="-1">
        <lane id="gneE106_0" index="0" speed="13.89" length="22.97" shape="74.52,-73.63 88.50,-55.41"/>
        <lane id="gneE106_1" index="1" speed="13.89" length="22.97" shape="71.98,-71.68 85.96,-53.46"/>
    </edge>
    <edge id="gneE107" from="gneJ6" to="gneJ5" priority="-1">
        <lane id="gneE107_0" index="0" speed="13.89" length="45.12" shape="92.96,-44.82 104.64,-1.24"/>
        <lane id="gneE107_1" index="1" speed="13.89" length="45.12" shape="89.87,-44.00 101.55,-0.41"/>
    </edge>
    <edge id="gneE108" from="gneJ5" to="gneJ4" priority="-1">
        <lane id="gneE108_0" index="0" speed="13.89" length="45.12" shape="104.64,1.24 92.96,44.82"/>
        <lane id="gneE108_1" index="1" speed="13.89" length="45.12" shape="101.55,0.41 89.87,44.00"/>
    </edge>
    <edge id="gneE109" from="gneJ4" to="gneJ3" priority="-1">
        <lane id="gneE109_0" index="0" speed="13.89" length="22.97" shape="88.50,55.41 74.52,73.63"/>
        <lane id="gneE109_1" index="1" speed="13.89" length="22.97" shape="85.96,53.46 71.98,71.68"/>
    </edge>
    <edge id="gneE110" from="gneJ3" to="gneJ2" priority="-1">
        <lane id="gneE110_0" index="0" speed="13.89" length="22.97" shape="73.63,74.52 55.41,88.50"/>
        <lane id="gneE110_1" index="1" speed="13.89" length="22.97" shape="71.68,71.98 53.46,85.96"/>
    </edge>
    <edge id="gneE111" from="gneJ2" to="gneJ1" priority="-1">
        <lane id="gneE111_0" index="0" speed="13.89" length="45.12" shape="44.82,92.96 1.24,104.64"/>
        <lane id="gneE111_1" index="1" speed="13.89" length="45.12" shape="44.00,89.87 0.41,101.55"/>
    </edge>
    <edge id="gneE113" from="gneJ95" to="gneJ12" priority="-1">
        <lane id="gneE113_0" index="0" speed="13.89" length="111.37" shape="-199.33,-5.54 -97.42,-50.47"/>
        <lane id="gneE113_1" index="1" speed="13.89" length="111.37" shape="-198.04,-2.61 -96.13,-47.55"/>
    </edge>
    <edge id="gneE114" from="gneJ10" to="gneJ97" priority="-1">
        <lane id="gneE114_0" index="0" speed="13.89" length="111.37" shape="-50.47,-97.42 -5.54,-199.33"/>
        <lane id="gneE114_1" index="1" speed="13.89" length="111.37" shape="-47.55,-96.13 -2.61,-198.04"/>
    </edge>
    <edge id="gneE115" from="gneJ97" to="gneJ8" priority="-1">
        <lane id="gneE115_0" index="0" speed="13.89" length="111.37" shape="5.54,-199.33 50.47,-97.42"/>
        <lane id="gneE115_1" index="1" speed="13.89" length="111.37" shape="2.61,-198.04 47.55,-96.13"/>
    </edge>
    <edge id="gneE116" from="gneJ6" to="gneJ98" priority="-1">
        <lane id="gneE116_0" index="0" speed="13.89" length="111.37" shape="97.42,-50.47 199.33,-5.54"/>
        <lane id="gneE116_1" index="1" speed="13.89" length="111.37" shape="96.13,-47.55 198.04,-2.61"/>
    </edge>
    <edge id="gneE118" from="gneJ98" to="gneJ4" priority="-1">
        <lane id="gneE118_0" index="0" speed="13.89" length="111.37" shape="199.33,5.54 97.42,50.47"/>
        <lane id="gneE118_1" index="1" speed="13.89" length="111.37" shape="198.04,2.61 96.13,47.55"/>
    </edge>
    <edge id="gneE120" from="gneJ2" to="gneJ101" priority="-1">
        <lane id="gneE120_0" index="0" speed="13.89" length="111.37" shape="50.47,97.42 5.54,199.33"/>
        <lane id="gneE120_1" index="1" speed="13.89" length="111.37" shape="47.55,96.13 2.61,198.04"/>
    </edge>
    <edge id="gneE121" from="gneJ101" to="gneJ73" priority="-1">
        <lane id="gneE121_0" index="0" speed="13.89" length="111.37" shape="-5.54,199.33 -50.47,97.42"/>
        <lane id="gneE121_1" index="1" speed="13.89" length="111.37" shape="-2.61,198.04 -47.55,96.13"/>
    </edge>
    <edge id="gneE127" from="gneJ14" to="gneJ95" priority="-1">
        <lane id="gneE127_0" index="0" speed="13.89" length="111.37" shape="-97.42,50.47 -199.33,5.54"/>
        <lane id="gneE127_1" index="1" speed="13.89" length="111.37" shape="-96.13,47.55 -198.04,2.61"/>
    </edge>
    <edge id="gneE96" from="gneJ1" to="gneJ73" priority="-1">
        <lane id="gneE96_0" index="0" speed="13.89" length="45.12" shape="-1.24,104.64 -44.82,92.96"/>
        <lane id="gneE96_1" index="1" speed="13.89" length="45.12" shape="-0.41,101.55 -44.00,89.87"/>
    </edge>
    <edge id="gneE97" from="gneJ73" to="gneJ15" priority="-1">
        <lane id="gneE97_0" index="0" speed="13.89" length="22.97" shape="-55.41,88.50 -73.63,74.52"/>
        <lane id="gneE97_1" index="1" speed="13.89" length="22.97" shape="-53.46,85.96 -71.68,71.98"/>
    </edge>
    <edge id="gneE98" from="gneJ15" to="gneJ14" priority="-1">
        <lane id="gneE98_0" index="0" speed="13.89" length="22.97" shape="-74.52,73.63 -88.50,55.41"/>
        <lane id="gneE98_1" index="1" speed="13.89" length="22.97" shape="-71.98,71.68 -85.96,53.46"/>
    </edge>
    <edge id="gneE99" from="gneJ14" to="gneJ13" priority="-1">
        <lane id="gneE99_0" index="0" speed="13.89" length="45.12" shape="-92.96,44.82 -104.64,1.24"/>
        <lane id="gneE99_1" index="1" speed="13.89" length="45.12" shape="-89.87,44.00 -101.55,0.41"/>
    </edge>
    <edge id="n_entry" from="gneJ107" to="gneJ101" priority="-1">
        <lane id="n_entry_0" index="0" speed="13.89" length="97.15" shape="-4.80,300.00 -4.80,202.85"/>
        <lane id="n_entry_1" index="1" speed="13.89" length="97.15" shape="-1.60,300.00 -1.60,202.85"/>
    </edge>
    <edge id="n_exit" from="gneJ101" to="gneJ107" priority="-1">
        <lane id="n_exit_0" index="0" speed="13.89" length="97.15" shape="4.80,202.85 4.80,300.00"/>
        <lane id="n_exit_1" index="1" speed="13.89" length="97.15" shape="1.60,202.85 1.60,300.00"/>
    </edge>
    <edge id="s_entry" from="gneJ104" to="gneJ97" priority="-1">
        <lane id="s_entry_0" index="0" speed="13.89" length="97.15" shape="4.80,-300.00 4.80,-202.85"/>
        <lane id="s_entry_1" index="1" speed="13.89" length="97.15" shape="1.60,-300.00 1.60,-202.85"/>
    </edge>
    <edge id="s_exit" from="gneJ97" to="gneJ104" priority="-1">
        <lane id="s_exit_0" index="0" speed="13.89" length="97.15" shape="-4.80,-202.85 -4.80,-300.00"/>
        <lane id="s_exit_1" index="1" speed="13.89" length="97.15" shape="-1.60,-202.85 -1.60,-300.00"/>
    </edge>
    <edge id="w_entry" from="gneJ103" to="gneJ95" priority="-1">
        <lane id="w_entry_0" index="0" speed="13.89" length="97.15" shape="-300.00,-4.80 -202.85,-4.80"/>
        <lane id="w_entry_1" index="1" speed="13.89" length="97.15" shape="-300.00,-1.60 -202.85,-1.60"/>
    </edge>
    <edge id="w_exit" from="gneJ95" to="gneJ103" priority="-1">
        <lane id="w_exit_0" index="0" speed="13.89" length="97.15" shape="-202.85,4.80 -300.00,4.80"/>
        <lane id="w_exit_1" index="1" speed="13.89" length="97.15" shape="-202.85,1.60 -300.00,1.60"/>
    </edge>

    <junction id="gneJ1" type="priority" x="0.00" y="100.00" incLanes="gneE111_0 gneE111_1" intLanes=":gneJ1_0_0 :gneJ1_0_1" shape="1.66,106.18 -0.00,100.00 -1.66,106.18 -0.44,106.47 -0.00,106.50 0.44,106.47 0.97,106.36">
        <request index="0" response="00" foes="00" cont="0"/>
        <request index="1" response="00" foes="00" cont="0"/>
    </junction>
    <junction id="gneJ10" type="priority" x="-50.00" y="-86.60" incLanes="gneE102_0 gneE102_1" intLanes=":gneJ10_0_0 :gneJ10_0_1 :gneJ10_2_0 :gneJ10_2_1" shape="-43.58,-88.32 -45.24,-94.50 -45.98,-94.44 -46.17,-94.55 -46.26,-94.77 -46.23,-95.08 -46.08,-95.49 -51.94,-98.07 -52.67,-96.16 -53.11,-94.64 -53.47,-93.38 -53.99,-92.24 -54.89,-91.08 -56.39,-89.77 -52.49,-84.69 -50.83,-85.89 -49.52,-86.66 -48.35,-87.14 -47.11,-87.48 -45.59,-87.82">
        <request index="0" response="0000" foes="0000" cont="0"/>
        <request index="1" response="0000" foes="0000" cont="0"/>
        <request index="2" response="0000" foes="0000" cont="0"/>
        <request index="3" response="0000" foes="0000" cont="0"/>
    </junction>
    <junction id="gneJ101" type="priority" x="0.00" y="200.00" incLanes="n_entry_0 n_entry_1 gneE120_0 gneE120_1" intLanes=":gneJ101_0_0 :gneJ101_0_1 :gneJ101_5_0 :gneJ101_3_0 :gneJ101_3_1" shape="-6.40,202.85 6.40,202.85 6.43,201.75 6.48,201.37 6.59,200.99 6.75,200.55 7.01,199.98 1.15,197.39 0.38,198.55 0.00,198.70 -0.38,198.55 -0.77,198.12 -1.15,197.39 -7.01,199.98 -6.59,200.99 -6.48,201.37 -6.43,201.75 -6.40,202.22">
        <request index="0" response="00000" foes="00000" cont="0"/>
        <request index="1" response="00000" foes="00000" cont="0"/>
        <request index="2" response="11000" foes="11000" cont="1"/>
        <request index="3" response="00000" foes="00100" cont="0"/>
        <request index="4" response="00000" foes="00100" cont="0"/>
    </junction>
    <junction id="gneJ103" type="dead_end" x="-300.00" y="0.00" incLanes="w_exit_0 w_exit_1" intLanes="" shape="-300.00,0.00 -300.00,6.40 -300.00,0.00"/>
    <junction id="gneJ104" type="dead_end" x="0.00" y="-300.00" incLanes="s_exit_0 s_exit_1" intLanes="" shape="0.00,-300.00 -6.40,-300.00 0.00,-300.00"/>
    <junction id="gneJ105" type="dead_end" x="300.00" y="0.00" incLanes="e_exit_0 e_exit_1" intLanes="" shape="300.00,0.00 300.00,-6.40 300.00,0.00"/>
    <junction id="gneJ107" type="dead_end" x="0.00" y="300.00" incLanes="n_exit_0 n_exit_1" intLanes="" shape="0.00,300.00 6.40,300.00 0.00,300.00"/>
    <junction id="gneJ11" type="priority" x="-70.71" y="-70.71" incLanes="gneE101_0 gneE101_1" intLanes=":gneJ11_0_0 :gneJ11_0_1" shape="-70.71,-70.71 -74.61,-75.79 -75.09,-75.40 -75.25,-75.25 -75.40,-75.09 -75.57,-74.89 -75.79,-74.61">
        <request index="0" response="00" foes="00" cont="0"/>
        <request index="1" response="00" foes="00" cont="0"/>
    </junction>
    <junction id="gneJ12" type="priority" x="-86.60" y="-50.00" incLanes="gneE113_0 gneE113_1 gneE100_0 gneE100_1" intLanes=":gneJ12_0_0 :gneJ12_0_1 :gneJ12_2_0 :gneJ12_2_1" shape="-84.69,-52.49 -89.77,-56.39 -92.24,-53.99 -93.38,-53.47 -94.64,-53.11 -96.16,-52.67 -98.07,-51.94 -95.49,-46.08 -94.77,-46.26 -94.55,-46.17 -94.44,-45.98 -94.42,-45.66 -94.50,-45.24 -88.32,-43.58 -87.82,-45.59 -87.48,-47.11 -87.14,-48.35 -86.66,-49.52 -85.89,-50.83">
        <request index="0" response="0100" foes="0100" cont="0"/>
        <request index="1" response="1100" foes="1100" cont="0"/>
        <request index="2" response="0000" foes="0011" cont="0"/>
        <request index="3" response="0000" foes="0010" cont="0"/>
    </junction>
    <junction id="gneJ13" type="priority" x="-100.00" y="0.00" incLanes="gneE99_0 gneE99_1" intLanes=":gneJ13_0_0 :gneJ13_0_1" shape="-106.18,1.66 -100.00,-0.00 -106.18,-1.66 -106.47,-0.44 -106.50,-0.00 -106.47,0.44 -106.36,0.97">
        <request index="0" response="00" foes="00" cont="0"/>
        <request index="1" response="00" foes="00" cont="0"/>
    </junction>
    <junction id="gneJ14" type="priority" x="-86.60" y="50.00" incLanes="gneE98_0 gneE98_1" intLanes=":gneJ14_0_0 :gneJ14_0_1 :gneJ14_2_0 :gneJ14_2_1" shape="-89.77,56.39 -84.69,52.49 -85.89,50.83 -86.66,49.52 -87.14,48.35 -87.48,47.11 -87.82,45.59 -88.32,43.58 -94.50,45.24 -94.44,45.98 -94.55,46.17 -94.77,46.26 -95.08,46.23 -95.49,46.08 -98.07,51.94 -96.16,52.67 -94.64,53.11 -93.38,53.47 -92.24,53.99 -91.08,54.89">
        <request index="0" response="0000" foes="0000" cont="0"/>
        <request index="1" response="0000" foes="0000" cont="0"/>
        <request index="2" response="0000" foes="0000" cont="0"/>
        <request index="3" response="0000" foes="0000" cont="0"/>
    </junction>
    <junction id="gneJ15" type="priority" x="-70.71" y="70.71" incLanes="gneE97_0 gneE97_1" intLanes=":gneJ15_0_0 :gneJ15_0_1" shape="-74.61,75.79 -70.71,70.71 -75.79,74.61 -75.40,75.09 -75.25,75.25 -75.09,75.40 -74.89,75.57">
        <request index="0" response="00" foes="00" cont="0"/>
        <request index="1" response="00" foes="00" cont="0"/>
    </junction>
    <junction id="gneJ2" type="priority" x="50.00" y="86.60" incLanes="gneE110_0 gneE110_1" intLanes=":gneJ2_0_0 :gneJ2_0_1 :gneJ2_2_0 :gneJ2_2_1" shape="56.39,89.77 52.49,84.69 50.83,85.89 49.52,86.66 48.35,87.14 47.11,87.48 45.59,87.82 43.58,88.32 45.24,94.50 45.98,94.44 46.17,94.55 46.26,94.77 46.23,95.08 46.08,95.49 51.94,98.07 52.67,96.16 53.11,94.64 53.47,93.38 53.99,92.24 54.89,91.08">
        <request index="0" response="0000" foes="0000" cont="0"/>
        <request index="1" response="0000" foes="0000" cont="0"/>
        <request index="2" response="0000" foes="0000" cont="0"/>
        <request index="3" response="0000" foes="0000" cont="0"/>
    </junction>
    <junction id="gneJ3" type="priority" x="70.71" y="70.71" incLanes="gneE109_0 gneE109_1" intLanes=":gneJ3_0_0 :gneJ3_0_1" shape="75.79,74.61 70.71,70.71 74.61,75.79 75.09,75.40 75.25,75.25 75.40,75.09 75.57,74.89">
        <request index="0" response="00" foes="00" cont="0"/>
        <request index="1" response="00" foes="00" cont="0"/>
    </junction>
    <junction id="gneJ4" type="priority" x="86.60" y="50.00" incLanes="gneE118_0 gneE118_1 gneE108_0 gneE108_1" intLanes=":gneJ4_0_0 :gneJ4_0_1 :gneJ4_2_0 :gneJ4_2_1" shape="98.07,51.94 95.49,46.08 94.77,46.26 94.55,46.17 94.44,45.98 94.42,45.66 94.50,45.24 88.32,43.58 87.82,45.59 87.48,47.11 87.14,48.35 86.66,49.52 85.89,50.83 84.69,52.49 89.77,56.39 92.24,53.99 93.38,53.47 94.64,53.11 96.16,52.67">
        <request index="0" response="0100" foes="0100" cont="0"/>
        <request index="1" response="1100" foes="1100" cont="0"/>